#       
#       
#       This file was generated by PRODRG version AA100323.0717
#       PRODRG written/copyrighted by Daan van Aalten
#       and Alexander Schuettelkopf
#       
#       Questions/comments to dava@davapc1.bioch.dundee.ac.uk
#       
#       When using this software in a publication, cite:
#       A. W. Schuettelkopf and D. M. F. van Aalten (2004).
#       PRODRG - a tool for high-throughput crystallography
#       of protein-ligand complexes.
#       Acta Crystallogr. D60, 1355--1363.
#       
#       
@<TRIPOS>MOLECULE
DRG  
  155  154    1
SMALL
USER_CHARGES

PRODRG MOLECULE
@<TRIPOS>ATOM
     1  CAA        31.010    17.120    -0.490   C.3       1 DRG       0.064
     2  HAA        30.532    16.659    -1.355   H         1 DRG      -0.017
     3  HAB        31.881    17.689    -0.816   H         1 DRG      -0.017
     4  HAC        30.312    17.742     0.070   H         1 DRG      -0.017
     5  CAS        31.450    16.030     0.490   C.3       1 DRG       0.065
     6  HAV        31.928    16.491     1.354   H         1 DRG      -0.018
     7  HAW        32.091    15.344    -0.063   H         1 DRG      -0.017
     8  CBE        30.230    15.230     0.950   C.3       1 DRG       0.065
     9  HBJ        29.756    14.760     0.088   H         1 DRG      -0.017
    10  HBK        29.585    15.917     1.498   H         1 DRG      -0.017
    11  CBH        30.680    14.150     1.940   C.3       1 DRG       0.064
    12  HBP        31.319    13.461     1.387   H         1 DRG      -0.017
    13  HBQ        31.171    14.627     2.788   H         1 DRG      -0.017
    14  CAY        29.480    13.330     2.450   C.3       1 DRG       0.064
    15  HA7        28.882    13.071     1.576   H         1 DRG      -0.017
    16  HA8        29.850    12.468     3.006   H         1 DRG      -0.017
    17  CAM        28.580    14.170     3.370   C.2       1 DRG       0.002
    18  HAP        29.004    14.990     3.950   H         1 DRG      -0.017
    19  CAG        27.080    13.850     3.470   C.2       1 DRG       0.002
    20  HAJ        26.407    14.522     4.002   H         1 DRG      -0.017
    21  CAV        26.540    12.570     2.810   C.3       1 DRG       0.065
    22  HA1        26.592    11.745     3.520   H         1 DRG      -0.017
    23  HA2        27.118    12.414     1.899   H         1 DRG      -0.018
    24  CAJ        25.090    12.790     2.390   C.2       1 DRG       0.002
    25  HAM        24.819    13.195     1.415   H         1 DRG      -0.017
    26  CAP        24.040    12.400     3.440   C.2       1 DRG       0.002
    27  HAS        24.313    12.021     4.425   H         1 DRG      -0.017
    28  CBB        22.590    12.580     3.010   C.3       1 DRG       0.065
    29  HBD        22.533    13.361     2.252   H         1 DRG      -0.017
    30  HBE        22.014    12.790     3.911   H         1 DRG      -0.017
    31  CBK        22.050    11.270     2.430   C.3       1 DRG       0.065
    32  HBV        22.092    10.490     3.190   H         1 DRG      -0.017
    33  HBW        22.629    11.055     1.532   H         1 DRG      -0.017
    34  CBN        20.600    11.480     1.990   C.3       1 DRG       0.065
    35  HB1        20.563    12.245     1.214   H         1 DRG      -0.017
    36  HB2        20.027    11.722     2.885   H         1 DRG      -0.017
    37  CBQ        20.040    10.170     1.440   C.3       1 DRG       0.065
    38  HB7        20.081     9.402     2.213   H         1 DRG      -0.017
    39  HB8        20.605     9.932     0.539   H         1 DRG      -0.018
    40  CBT        18.580    10.390     1.010   C.3       1 DRG       0.065
    41  HCD        18.547    11.130     0.211   H         1 DRG      -0.018
    42  HCE        18.026    10.674     1.905   H         1 DRG      -0.017
    43  CBW        17.980     9.080     0.510   C.3       1 DRG       0.064
    44  HCJ        18.082     8.324     1.289   H         1 DRG      -0.017
    45  HCK        18.495     8.831    -0.418   H         1 DRG      -0.017
    46  CBZ        16.490     9.240     0.160   C.3       1 DRG       0.065
    47  HCP        16.137     8.327    -0.321   H         1 DRG      -0.018
    48  HCQ        16.407    10.130    -0.463   H         1 DRG      -0.017
    49  CCF        15.650     9.500     1.420   C.2       1 DRG       0.204
    50  OAD        15.430    10.650     1.810   O.2       1 DRG      -0.435
    51  OCC        15.310     8.360     2.100   O.3       1 DRG      -0.123
    52  CCI        14.190     8.480     2.990   C.3       1 DRG       0.134
    53  HCV        14.226     9.424     3.534   H         1 DRG      -0.017
    54  OCE        12.980     8.380     2.220   O.3       1 DRG      -0.123
    55  CCH        12.380     9.580     1.970   C.2       1 DRG       0.204
    56  OAF        12.400    10.120     0.870   O.2       1 DRG      -0.436
    57  CCB        11.500    10.130     3.090   C.3       1 DRG       0.065
    58  HCT        12.122    10.186     3.983   H         1 DRG      -0.017
    59  HCU        11.083    11.088     2.779   H         1 DRG      -0.017
    60  CBY        10.350     9.160     3.410   C.3       1 DRG       0.065
    61  HCN        10.726     8.161     3.190   H         1 DRG      -0.018
    62  HCO        10.082     9.295     4.458   H         1 DRG      -0.018
    63  CBV         9.070     9.330     2.570   C.3       1 DRG       0.065
    64  HCH         8.392     8.543     2.900   H         1 DRG      -0.017
    65  HCI         8.684    10.329     2.771   H         1 DRG      -0.017
    66  CBS         9.170     9.180     1.030   C.3       1 DRG       0.065
    67  HCB         8.150     9.268     0.656   H         1 DRG      -0.017
    68  HCC         9.824     9.973     0.667   H         1 DRG      -0.019
    69  CBP         9.710     7.850     0.480   C.3       1 DRG       0.065
    70  HB5         9.587     7.891    -0.602   H         1 DRG      -0.017
    71  HB6        10.748     7.744     0.796   H         1 DRG      -0.017
    72  CBM         8.930     6.620     0.960   C.3       1 DRG       0.065
    73  HBZ         9.219     6.450     1.997   H         1 DRG      -0.018
    74  HB0         7.864     6.804     0.823   H         1 DRG      -0.017
    75  CBD         9.320     5.350     0.180   C.3       1 DRG       0.065
    76  HBH         8.770     4.532     0.644   H         1 DRG      -0.017
    77  HBI         9.045     5.509    -0.863   H         1 DRG      -0.017
    78  CAR        10.810     4.930     0.210   C.2       1 DRG       0.002
    79  HAU        11.248     4.391    -0.630   H         1 DRG      -0.017
    80  CAL        11.660     5.280     1.430   C.2       1 DRG       0.002
    81  HAO        11.248     5.801     2.294   H         1 DRG      -0.017
    82  CAX        13.130     4.850     1.360   C.3       1 DRG       0.064
    83  HA5        13.509     4.843     2.382   H         1 DRG      -0.017
    84  HA6        13.203     3.890     0.849   H         1 DRG      -0.018
    85  CAI        13.940     5.900     0.590   C.2       1 DRG       0.002
    86  HAL        13.548     6.905     0.433   H         1 DRG      -0.017
    87  CAO        15.310     5.500     0.050   C.2       1 DRG       0.002
    88  HAR        15.658     5.858    -0.919   H         1 DRG      -0.018
    89  CBA        16.180     4.580     0.910   C.3       1 DRG       0.065
    90  HBB        15.540     3.977     1.554   H         1 DRG      -0.017
    91  HBC        16.880     5.218     1.449   H         1 DRG      -0.017
    92  CBJ        17.010     3.660     0.020   C.3       1 DRG       0.064
    93  HBT        17.661     4.259    -0.616   H         1 DRG      -0.017
    94  HBU        16.311     3.025    -0.525   H         1 DRG      -0.017
    95  CBG        17.860     2.740     0.900   C.3       1 DRG       0.065
    96  HBN        18.567     3.375     1.435   H         1 DRG      -0.017
    97  HBO        17.208     2.154     1.547   H         1 DRG      -0.019
    98  CAU        18.680     1.800     0.020   C.3       1 DRG       0.065
    99  HAZ        17.973     1.162    -0.511   H         1 DRG      -0.018
   100  HA0        19.329     2.386    -0.630   H         1 DRG      -0.017
   101  CAC        19.530     0.890     0.900   C.3       1 DRG       0.064
   102  HAH        18.881     0.304     1.551   H         1 DRG      -0.017
   103  HAI        20.201     1.497     1.508   H         1 DRG      -0.018
   104  HAG        20.081     0.255     0.207   H         1 DRG      -0.017
   105  OCD        14.250     7.370     3.890   O.3       1 DRG      -0.123
   106  CCG        13.440     7.460     4.990   C.2       1 DRG       0.203
   107  OAE        13.030     8.500     5.510   O.2       1 DRG      -0.435
   108  CCA        13.060     6.100     5.580   C.3       1 DRG       0.065
   109  HCR        13.798     5.379     5.229   H         1 DRG      -0.018
   110  HCS        12.982     6.176     6.665   H         1 DRG      -0.017
   111  CBX        11.710     5.690     4.990   C.3       1 DRG       0.065
   112  HCL        10.941     6.180     5.587   H         1 DRG      -0.017
   113  HCM        11.686     5.952     3.932   H         1 DRG      -0.017
   114  CBU        11.500     4.190     5.140   C.3       1 DRG       0.065
   115  HCF        12.372     3.696     4.712   H         1 DRG      -0.017
   116  HCG        11.307     3.945     6.184   H         1 DRG      -0.017
   117  CBR        10.290     3.800     4.280   C.3       1 DRG       0.065
   118  HB9         9.404     3.936     4.900   H         1 DRG      -0.017
   119  HCA        10.291     4.394     3.366   H         1 DRG      -0.017
   120  CBO        10.360     2.320     3.920   C.3       1 DRG       0.065
   121  HB3        11.378     2.117     3.588   H         1 DRG      -0.018
   122  HB4        10.035     1.719     4.769   H         1 DRG      -0.017
   123  CBL         9.440     2.070     2.730   C.3       1 DRG       0.065
   124  HBX         8.419     2.111     3.109   H         1 DRG      -0.017
   125  HBY         9.653     2.813     1.961   H         1 DRG      -0.017
   126  CBC         9.630     0.670     2.130   C.3       1 DRG       0.065
   127  HBF         9.514    -0.040     2.949   H         1 DRG      -0.017
   128  HBG         8.911     0.533     1.322   H         1 DRG      -0.017
   129  CAQ        11.050     0.470     1.570   C.2       1 DRG       0.001
   130  HAT        11.814    -0.078     2.122   H         1 DRG      -0.017
   131  CAK        11.330     1.080     0.200   C.2       1 DRG       0.002
   132  HAN        10.597     1.682    -0.337   H         1 DRG      -0.017
   133  CAW        12.720     0.780    -0.360   C.3       1 DRG       0.065
   134  HA3        13.341     0.466     0.479   H         1 DRG      -0.017
   135  HA4        12.637     0.040    -1.156   H         1 DRG      -0.017
   136  CAH        13.340     2.060    -0.920   C.2       1 DRG       0.002
   137  HAK        13.924     2.739    -0.299   H         1 DRG      -0.017
   138  CAN        13.090     2.330    -2.410   C.2       1 DRG       0.002
   139  HAQ        12.552     1.634    -3.053   H         1 DRG      -0.017
   140  CAZ        13.660     3.660    -2.920   C.3       1 DRG       0.065
   141  HA9        13.941     3.558    -3.968   H         1 DRG      -0.017
   142  HBA        14.484     3.928    -2.259   H         1 DRG      -0.017
   143  CBI        12.600     4.750    -2.780   C.3       1 DRG       0.065
   144  HBR        12.209     4.745    -1.763   H         1 DRG      -0.017
   145  HBS        11.849     4.566    -3.549   H         1 DRG      -0.019
   146  CBF        13.220     6.120    -3.080   C.3       1 DRG       0.065
   147  HBL        14.034     6.265    -2.370   H         1 DRG      -0.017
   148  HBM        13.522     6.164    -4.126   H         1 DRG      -0.017
   149  CAT        12.180     7.200    -2.800   C.3       1 DRG       0.065
   150  HAX        11.400     7.098    -3.555   H         1 DRG      -0.019
   151  HAY        11.826     7.108    -1.773   H         1 DRG      -0.017
   152  CAB        12.820     8.580    -3.000   C.3       1 DRG       0.064
   153  HAE        13.174     8.672    -4.027   H         1 DRG      -0.017
   154  HAF        13.660     8.693    -2.315   H         1 DRG      -0.017
   155  HAD        12.027     9.296    -2.784   H         1 DRG      -0.017
@<TRIPOS>BOND
    1    1    2 1 
    2    1    3 1 
    3    1    4 1 
    4    5    1 1 
    5    5    6 1 
    6    5    7 1 
    7    5    8 1 
    8    8    9 1 
    9    8   10 1 
   10    8   11 1 
   11   11   12 1 
   12   11   13 1 
   13   11   14 1 
   14   14   15 1 
   15   14   16 1 
   16   14   17 1 
   17   17   18 1 
   18   17   19 2 
   19   19   20 1 
   20   21   19 1 
   21   21   22 1 
   22   21   23 1 
   23   21   24 1 
   24   24   25 1 
   25   24   26 2 
   26   26   27 1 
   27   28   26 1 
   28   28   29 1 
   29   28   30 1 
   30   28   31 1 
   31   31   32 1 
   32   31   33 1 
   33   31   34 1 
   34   34   35 1 
   35   34   36 1 
   36   34   37 1 
   37   37   38 1 
   38   37   39 1 
   39   37   40 1 
   40   40   41 1 
   41   40   42 1 
   42   40   43 1 
   43   43   44 1 
   44   43   45 1 
   45   43   46 1 
   46   46   47 1 
   47   46   48 1 
   48   49   46 1 
   49   49   50 2 
   50   49   51 1 
   51   52   51 1 
   52   52   53 1 
   53   52   54 1 
   54   52  105 1 
   55   55   54 1 
   56   55   56 2 
   57   55   57 1 
   58   57   58 1 
   59   57   59 1 
   60   57   60 1 
   61   60   61 1 
   62   60   62 1 
   63   60   63 1 
   64   63   64 1 
   65   63   65 1 
   66   63   66 1 
   67   66   67 1 
   68   66   68 1 
   69   66   69 1 
   70   69   70 1 
   71   69   71 1 
   72   69   72 1 
   73   72   73 1 
   74   72   74 1 
   75   72   75 1 
   76   75   76 1 
   77   75   77 1 
   78   75   78 1 
   79   78   79 1 
   80   78   80 2 
   81   80   81 1 
   82   82   80 1 
   83   82   83 1 
   84   82   84 1 
   85   82   85 1 
   86   85   86 1 
   87   85   87 2 
   88   87   88 1 
   89   89   87 1 
   90   89   90 1 
   91   89   91 1 
   92   89   92 1 
   93   92   93 1 
   94   92   94 1 
   95   92   95 1 
   96   95   96 1 
   97   95   97 1 
   98   95   98 1 
   99   98   99 1 
  100   98  100 1 
  101   98  101 1 
  102  101  102 1 
  103  101  103 1 
  104  101  104 1 
  105  106  105 1 
  106  106  107 2 
  107  106  108 1 
  108  108  109 1 
  109  108  110 1 
  110  108  111 1 
  111  111  112 1 
  112  111  113 1 
  113  111  114 1 
  114  114  115 1 
  115  114  116 1 
  116  114  117 1 
  117  117  118 1 
  118  117  119 1 
  119  117  120 1 
  120  120  121 1 
  121  120  122 1 
  122  120  123 1 
  123  123  124 1 
  124  123  125 1 
  125  123  126 1 
  126  126  127 1 
  127  126  128 1 
  128  126  129 1 
  129  129  130 1 
  130  129  131 2 
  131  131  132 1 
  132  133  131 1 
  133  133  134 1 
  134  133  135 1 
  135  133  136 1 
  136  136  137 1 
  137  136  138 2 
  138  138  139 1 
  139  140  138 1 
  140  140  141 1 
  141  140  142 1 
  142  140  143 1 
  143  143  144 1 
  144  143  145 1 
  145  143  146 1 
  146  146  147 1 
  147  146  148 1 
  148  146  149 1 
  149  149  150 1 
  150  149  151 1 
  151  149  152 1 
  152  152  153 1 
  153  152  154 1 
  154  152  155 1 
@<TRIPOS>SUBSTRUCTURE
  1  DRG    1  
