#       
#       
#       This file was generated by PRODRG version AA100323.0717
#       PRODRG written/copyrighted by Daan van Aalten
#       and Alexander Schuettelkopf
#       
#       Questions/comments to dava@davapc1.bioch.dundee.ac.uk
#       
#       When using this software in a publication, cite:
#       A. W. Schuettelkopf and D. M. F. van Aalten (2004).
#       PRODRG - a tool for high-throughput crystallography
#       of protein-ligand complexes.
#       Acta Crystallogr. D60, 1355--1363.
#       
#       
@<TRIPOS>MOLECULE
DRG  
   61   60    1
SMALL
USER_CHARGES

PRODRG MOLECULE
@<TRIPOS>ATOM
     1  CAA        31.010    17.120    -0.490   C.3       1 DRG       0.064
     2  CAS        31.450    16.030     0.490   C.3       1 DRG       0.065
     3  CBE        30.230    15.230     0.950   C.3       1 DRG       0.065
     4  CBH        30.680    14.150     1.940   C.3       1 DRG       0.064
     5  CAY        29.480    13.330     2.450   C.3       1 DRG       0.064
     6  CAM        28.580    14.170     3.370   C.2       1 DRG       0.002
     7  CAG        27.080    13.850     3.470   C.2       1 DRG       0.002
     8  CAV        26.540    12.570     2.810   C.3       1 DRG       0.065
     9  CAJ        25.090    12.790     2.390   C.2       1 DRG       0.002
    10  CAP        24.040    12.400     3.440   C.2       1 DRG       0.002
    11  CBB        22.590    12.580     3.010   C.3       1 DRG       0.065
    12  CBK        22.050    11.270     2.430   C.3       1 DRG       0.065
    13  CBN        20.600    11.480     1.990   C.3       1 DRG       0.065
    14  CBQ        20.040    10.170     1.440   C.3       1 DRG       0.065
    15  CBT        18.580    10.390     1.010   C.3       1 DRG       0.065
    16  CBW        17.980     9.080     0.510   C.3       1 DRG       0.064
    17  CBZ        16.490     9.240     0.160   C.3       1 DRG       0.065
    18  CCF        15.650     9.500     1.420   C.2       1 DRG       0.204
    19  OAD        15.430    10.650     1.810   O.2       1 DRG      -0.435
    20  OCC        15.310     8.360     2.100   O.3       1 DRG      -0.123
    21  CCI        14.190     8.480     2.990   C.3       1 DRG       0.134
    22  OCE        12.980     8.380     2.220   O.3       1 DRG      -0.123
    23  CCH        12.380     9.580     1.970   C.2       1 DRG       0.204
    24  OAF        12.400    10.120     0.870   O.2       1 DRG      -0.436
    25  CCB        11.500    10.130     3.090   C.3       1 DRG       0.065
    26  CBY        10.350     9.160     3.410   C.3       1 DRG       0.065
    27  CBV         9.070     9.330     2.570   C.3       1 DRG       0.065
    28  CBS         9.170     9.180     1.030   C.3       1 DRG       0.065
    29  CBP         9.710     7.850     0.480   C.3       1 DRG       0.065
    30  CBM         8.930     6.620     0.960   C.3       1 DRG       0.065
    31  CBD         9.320     5.350     0.180   C.3       1 DRG       0.065
    32  CAR        10.810     4.930     0.210   C.2       1 DRG       0.002
    33  CAL        11.660     5.280     1.430   C.2       1 DRG       0.002
    34  CAX        13.130     4.850     1.360   C.3       1 DRG       0.064
    35  CAI        13.940     5.900     0.590   C.2       1 DRG       0.002
    36  CAO        15.310     5.500     0.050   C.2       1 DRG       0.002
    37  CBA        16.180     4.580     0.910   C.3       1 DRG       0.065
    38  CBJ        17.010     3.660     0.020   C.3       1 DRG       0.064
    39  CBG        17.860     2.740     0.900   C.3       1 DRG       0.065
    40  CAU        18.680     1.800     0.020   C.3       1 DRG       0.065
    41  CAC        19.530     0.890     0.900   C.3       1 DRG       0.064
    42  OCD        14.250     7.370     3.890   O.3       1 DRG      -0.123
    43  CCG        13.440     7.460     4.990   C.2       1 DRG       0.203
    44  OAE        13.030     8.500     5.510   O.2       1 DRG      -0.435
    45  CCA        13.060     6.100     5.580   C.3       1 DRG       0.065
    46  CBX        11.710     5.690     4.990   C.3       1 DRG       0.065
    47  CBU        11.500     4.190     5.140   C.3       1 DRG       0.065
    48  CBR        10.290     3.800     4.280   C.3       1 DRG       0.065
    49  CBO        10.360     2.320     3.920   C.3       1 DRG       0.065
    50  CBL         9.440     2.070     2.730   C.3       1 DRG       0.065
    51  CBC         9.630     0.670     2.130   C.3       1 DRG       0.065
    52  CAQ        11.050     0.470     1.570   C.2       1 DRG       0.001
    53  CAK        11.330     1.080     0.200   C.2       1 DRG       0.002
    54  CAW        12.720     0.780    -0.360   C.3       1 DRG       0.065
    55  CAH        13.340     2.060    -0.920   C.2       1 DRG       0.002
    56  CAN        13.090     2.330    -2.410   C.2       1 DRG       0.002
    57  CAZ        13.660     3.660    -2.920   C.3       1 DRG       0.065
    58  CBI        12.600     4.750    -2.780   C.3       1 DRG       0.065
    59  CBF        13.220     6.120    -3.080   C.3       1 DRG       0.065
    60  CAT        12.180     7.200    -2.800   C.3       1 DRG       0.065
    61  CAB        12.820     8.580    -3.000   C.3       1 DRG       0.064
@<TRIPOS>BOND
    1    2    1 1 
    2    2    3 1 
    3    3    4 1 
    4    4    5 1 
    5    5    6 1 
    6    6    7 2 
    7    8    7 1 
    8    8    9 1 
    9    9   10 2 
   10   11   10 1 
   11   11   12 1 
   12   12   13 1 
   13   13   14 1 
   14   14   15 1 
   15   15   16 1 
   16   16   17 1 
   17   18   17 1 
   18   18   19 2 
   19   18   20 1 
   20   21   20 1 
   21   21   22 1 
   22   21   42 1 
   23   23   22 1 
   24   23   24 2 
   25   23   25 1 
   26   25   26 1 
   27   26   27 1 
   28   27   28 1 
   29   28   29 1 
   30   29   30 1 
   31   30   31 1 
   32   31   32 1 
   33   32   33 2 
   34   34   33 1 
   35   34   35 1 
   36   35   36 2 
   37   37   36 1 
   38   37   38 1 
   39   38   39 1 
   40   39   40 1 
   41   40   41 1 
   42   43   42 1 
   43   43   44 2 
   44   43   45 1 
   45   45   46 1 
   46   46   47 1 
   47   47   48 1 
   48   48   49 1 
   49   49   50 1 
   50   50   51 1 
   51   51   52 1 
   52   52   53 2 
   53   54   53 1 
   54   54   55 1 
   55   55   56 2 
   56   57   56 1 
   57   57   58 1 
   58   58   59 1 
   59   59   60 1 
   60   60   61 1 
@<TRIPOS>SUBSTRUCTURE
  1  DRG    1  
