#       
#       
#       This file was generated by PRODRG version AA100323.0717
#       PRODRG written/copyrighted by Daan van Aalten
#       and Alexander Schuettelkopf
#       
#       Questions/comments to dava@davapc1.bioch.dundee.ac.uk
#       
#       When using this software in a publication, cite:
#       A. W. Schuettelkopf and D. M. F. van Aalten (2004).
#       PRODRG - a tool for high-throughput crystallography
#       of protein-ligand complexes.
#       Acta Crystallogr. D60, 1355--1363.
#       
#       
@<TRIPOS>MOLECULE
DRG  
    9    8    1
SMALL
USER_CHARGES

PRODRG MOLECULE
@<TRIPOS>ATOM
     1  CAA        -2.830    -1.070     0.050   C.3       1 DRG       0.072
     2  HAA        -3.367    -0.976    -0.894   H         1 DRG      -0.009
     3  HAB        -1.963    -0.409     0.042   H         1 DRG      -0.009
     4  HAC        -3.480    -0.868     0.902   H         1 DRG      -0.009
     5  CAC        -2.370    -2.510     0.230   C.3       1 DRG       0.073
     6  HAD        -1.833    -2.604     1.174   H         1 DRG      -0.009
     7  HAE        -1.768    -2.759    -0.644   H         1 DRG      -0.010
     8  OAB        -3.510    -3.380     0.240   O.3       1 DRG      -0.121
     9  HAF        -3.220    -4.320     0.360   H         1 DRG       0.022
@<TRIPOS>BOND
    1    1    2 1 
    2    1    3 1 
    3    1    4 1 
    4    5    1 1 
    5    5    6 1 
    6    5    7 1 
    7    5    8 1 
    8    8    9 1 
@<TRIPOS>SUBSTRUCTURE
  1  DRG    1  
