#       
#       
#       This file was generated by PRODRG version AA100323.0717
#       PRODRG written/copyrighted by Daan van Aalten
#       and Alexander Schuettelkopf
#       
#       Questions/comments to dava@davapc1.bioch.dundee.ac.uk
#       
#       When using this software in a publication, cite:
#       A. W. Schuettelkopf and D. M. F. van Aalten (2004).
#       PRODRG - a tool for high-throughput crystallography
#       of protein-ligand complexes.
#       Acta Crystallogr. D60, 1355--1363.
#       
#       
@<TRIPOS>MOLECULE
DRG  
  161  160    1
SMALL
USER_CHARGES

PRODRG MOLECULE
@<TRIPOS>ATOM
     1  CAA        33.390    -1.330     6.590   C.3       1 DRG       0.062
     2  HAA        33.566    -0.617     5.784   H         1 DRG      -0.019
     3  HAB        32.774    -2.150     6.221   H         1 DRG      -0.019
     4  HAC        34.326    -1.692     7.016   H         1 DRG      -0.019
     5  CAM        32.670    -0.630     7.740   C.3       1 DRG       0.064
     6  HAP        32.494    -1.343     8.545   H         1 DRG      -0.020
     7  HAQ        31.763    -0.189     7.327   H         1 DRG      -0.019
     8  CAV        33.530     0.520     8.260   C.3       1 DRG       0.064
     9  HA7        33.689     1.244     7.461   H         1 DRG      -0.019
    10  HA8        34.446     0.081     8.654   H         1 DRG      -0.019
    11  CBE        32.820     1.200     9.430   C.3       1 DRG       0.063
    12  HBP        32.610     0.464    10.206   H         1 DRG      -0.019
    13  HBQ        31.934     1.690     9.025   H         1 DRG      -0.019
    14  CBN        33.720     2.300    10.000   C.3       1 DRG       0.064
    15  HB7        33.879     3.069     9.244   H         1 DRG      -0.020
    16  HB8        34.633     1.818    10.349   H         1 DRG      -0.019
    17  CBH        33.040     2.920    11.230   C.3       1 DRG       0.064
    18  HBV        32.178     3.481    10.870   H         1 DRG      -0.019
    19  HBW        32.800     2.137    11.949   H         1 DRG      -0.019
    20  CAY        34.000     3.930    11.870   C.3       1 DRG       0.064
    21  HBD        34.888     3.373    12.168   H         1 DRG      -0.019
    22  HBE        34.199     4.730    11.157   H         1 DRG      -0.019
    23  CAP        33.410     4.540    13.150   C.3       1 DRG       0.064
    24  HAV        32.989     3.715    13.725   H         1 DRG      -0.020
    25  HAW        34.193     5.089    13.673   H         1 DRG      -0.019
    26  CAG        32.250     5.500    12.840   C.2       1 DRG       0.001
    27  HAJ        31.477     5.274    12.105   H         1 DRG      -0.019
    28  CAJ        32.270     6.800    13.650   C.2       1 DRG       0.001
    29  HAM        32.916     6.928    14.518   H         1 DRG      -0.019
    30  CAS        31.330     7.910    13.170   C.3       1 DRG       0.064
    31  HA1        30.854     8.363    14.040   H         1 DRG      -0.019
    32  HA2        30.627     7.446    12.478   H         1 DRG      -0.019
    33  CBB        32.060     9.010    12.380   C.3       1 DRG       0.064
    34  HBJ        33.072     9.102    12.774   H         1 DRG      -0.019
    35  HBK        31.465     9.916    12.491   H         1 DRG      -0.019
    36  CBK        32.150     8.730    10.870   C.3       1 DRG       0.063
    37  HB1        32.416     9.655    10.359   H         1 DRG      -0.019
    38  HB2        31.184     8.324    10.570   H         1 DRG      -0.019
    39  CBQ        33.200     7.660    10.530   C.3       1 DRG       0.064
    40  HCD        33.085     6.831    11.228   H         1 DRG      -0.020
    41  HCE        34.172     8.150    10.592   H         1 DRG      -0.019
    42  CBT        33.080     7.110     9.100   C.3       1 DRG       0.063
    43  HCJ        33.856     6.361     8.944   H         1 DRG      -0.019
    44  HCK        33.148     7.965     8.428   H         1 DRG      -0.019
    45  CBW        31.700     6.460     8.850   C.3       1 DRG       0.063
    46  HCP        30.942     7.242     8.873   H         1 DRG      -0.019
    47  HCQ        31.571     5.705     9.625   H         1 DRG      -0.019
    48  CBZ        31.600     5.730     7.510   C.3       1 DRG       0.063
    49  HCV        30.556     5.462     7.348   H         1 DRG      -0.019
    50  HCW        32.261     4.866     7.581   H         1 DRG      -0.019
    51  CCF        32.080     6.540     6.290   C.2       1 DRG       0.202
    52  OAD        33.200     6.330     5.820   O.2       1 DRG      -0.437
    53  OCC        31.210     7.460     5.770   O.3       1 DRG      -0.125
    54  CCI        31.420     8.800     6.260   C.3       1 DRG       0.132
    55  HC1        31.391     8.759     7.349   H         1 DRG      -0.019
    56  OCE        32.710     9.310     5.880   O.3       1 DRG      -0.125
    57  CCH        33.040     9.350     4.550   C.2       1 DRG       0.202
    58  OAF        32.360     9.930     3.700   O.2       1 DRG      -0.438
    59  CCB        34.380     8.720     4.150   C.3       1 DRG       0.064
    60  HCZ        34.198     7.652     4.029   H         1 DRG      -0.019
    61  HC0        34.736     9.209     3.243   H         1 DRG      -0.019
    62  CBY        35.460     8.860     5.240   C.3       1 DRG       0.064
    63  HCT        35.657     9.926     5.353   H         1 DRG      -0.020
    64  HCU        35.114     8.373     6.151   H         1 DRG      -0.020
    65  CBV        36.770     8.210     4.790   C.3       1 DRG       0.064
    66  HCN        37.408     8.142     5.671   H         1 DRG      -0.019
    67  HCO        36.551     7.248     4.326   H         1 DRG      -0.019
    68  CBS        37.500     9.100     3.780   C.3       1 DRG       0.064
    69  HCH        36.806     9.285     2.960   H         1 DRG      -0.019
    70  HCI        37.850    10.003     4.281   H         1 DRG      -0.020
    71  CBM        38.700     8.350     3.190   C.3       1 DRG       0.063
    72  HB5        39.379     8.149     4.019   H         1 DRG      -0.019
    73  HB6        38.336     7.449     2.696   H         1 DRG      -0.019
    74  CBD        39.490     9.180     2.170   C.3       1 DRG       0.064
    75  HBN        39.582    10.180     2.594   H         1 DRG      -0.019
    76  HBO        40.450     8.691     2.005   H         1 DRG      -0.020
    77  CAU        38.800     9.350     0.810   C.3       1 DRG       0.064
    78  HA5        39.566     9.683     0.109   H         1 DRG      -0.019
    79  HA6        38.327     8.408     0.534   H         1 DRG      -0.019
    80  CAL        37.730    10.450     0.850   C.2       1 DRG       0.001
    81  HAO        37.104    10.621     1.726   H         1 DRG      -0.019
    82  CAI        37.600    11.290    -0.420   C.2       1 DRG       0.001
    83  HAL        38.047    10.996    -1.370   H         1 DRG      -0.019
    84  CAR        36.790    12.580    -0.250   C.3       1 DRG       0.064
    85  HAZ        36.015    12.432     0.502   H         1 DRG      -0.020
    86  HA0        36.416    12.856    -1.236   H         1 DRG      -0.019
    87  CBA        37.740    13.690     0.200   C.3       1 DRG       0.063
    88  HBH        38.484    13.866    -0.577   H         1 DRG      -0.019
    89  HBI        38.158    13.383     1.158   H         1 DRG      -0.019
    90  CBJ        36.950    14.980     0.450   C.3       1 DRG       0.064
    91  HBZ        36.192    14.803     1.213   H         1 DRG      -0.020
    92  HB0        36.554    15.305    -0.512   H         1 DRG      -0.019
    93  CBP        37.920    16.070     0.930   C.3       1 DRG       0.064
    94  HCB        38.317    15.736     1.888   H         1 DRG      -0.019
    95  HCC        38.682    16.225     0.166   H         1 DRG      -0.020
    96  CBG        37.200    17.400     1.190   C.3       1 DRG       0.064
    97  HBT        36.136    17.171     1.246   H         1 DRG      -0.019
    98  HBU        37.601    17.838     2.104   H         1 DRG      -0.019
    99  CAX        37.370    18.410     0.050   C.3       1 DRG       0.064
   100  HBB        37.074    19.381     0.447   H         1 DRG      -0.021
   101  HBC        38.403    18.374    -0.297   H         1 DRG      -0.019
   102  CAO        36.440    18.120    -1.140   C.3       1 DRG       0.064
   103  HAT        36.735    17.152    -1.546   H         1 DRG      -0.020
   104  HAU        35.402    18.172    -0.811   H         1 DRG      -0.019
   105  CAC        36.680    19.160    -2.240   C.3       1 DRG       0.062
   106  HAH        37.718    19.109    -2.569   H         1 DRG      -0.019
   107  HAI        36.472    20.156    -1.849   H         1 DRG      -0.020
   108  HAG        35.991    18.892    -3.041   H         1 DRG      -0.019
   109  OCD        30.350     9.660     5.830   O.3       1 DRG      -0.125
   110  CCG        30.340    10.880     6.440   C.2       1 DRG       0.201
   111  OAE        30.040    11.050     7.620   O.2       1 DRG      -0.437
   112  CCA        30.750    12.050     5.540   C.3       1 DRG       0.064
   113  HCX        30.851    11.651     4.531   H         1 DRG      -0.020
   114  HCY        30.010    12.845     5.631   H         1 DRG      -0.019
   115  CBX        32.130    12.600     5.940   C.3       1 DRG       0.064
   116  HCR        31.948    13.389     6.670   H         1 DRG      -0.019
   117  HCS        32.728    11.776     6.330   H         1 DRG      -0.019
   118  CBU        32.900    13.250     4.780   C.3       1 DRG       0.064
   119  HCL        33.925    13.376     5.129   H         1 DRG      -0.019
   120  HCM        32.820    12.590     3.916   H         1 DRG      -0.019
   121  CBR        32.420    14.650     4.350   C.3       1 DRG       0.064
   122  HCF        32.032    15.126     5.250   H         1 DRG      -0.019
   123  HCG        33.273    15.177     3.922   H         1 DRG      -0.019
   124  CBL        31.280    14.690     3.320   C.3       1 DRG       0.064
   125  HB3        30.501    14.025     3.694   H         1 DRG      -0.019
   126  HB4        30.954    15.724     3.204   H         1 DRG      -0.020
   127  CBC        31.690    14.150     1.940   C.3       1 DRG       0.064
   128  HBL        31.251    14.817     1.199   H         1 DRG      -0.019
   129  HBM        32.777    14.090     1.893   H         1 DRG      -0.019
   130  CAT        31.100    12.750     1.680   C.3       1 DRG       0.064
   131  HA3        31.577    12.371     0.776   H         1 DRG      -0.019
   132  HA4        31.260    12.127     2.560   H         1 DRG      -0.019
   133  CAK        29.600    12.830     1.390   C.2       1 DRG       0.000
   134  HAN        29.162    13.625     0.787   H         1 DRG      -0.019
   135  CAH        28.760    11.710     2.010   C.2       1 DRG       0.001
   136  HAK        29.042    11.216     2.940   H         1 DRG      -0.019
   137  CAQ        27.490    11.330     1.230   C.3       1 DRG       0.064
   138  HAX        27.277    10.273     1.389   H         1 DRG      -0.019
   139  HAY        27.669    11.595     0.188   H         1 DRG      -0.019
   140  CAZ        26.290    12.160     1.700   C.3       1 DRG       0.064
   141  HBF        26.488    13.221     1.546   H         1 DRG      -0.019
   142  HBG        26.089    11.880     2.734   H         1 DRG      -0.019
   143  CBI        25.080    11.730     0.870   C.3       1 DRG       0.064
   144  HBX        24.888    10.670     1.036   H         1 DRG      -0.019
   145  HBY        25.298    11.987    -0.167   H         1 DRG      -0.019
   146  CBO        23.840    12.540     1.280   C.3       1 DRG       0.064
   147  HB9        23.610    12.274     2.312   H         1 DRG      -0.019
   148  HCA        24.023    13.602     1.117   H         1 DRG      -0.019
   149  CBF        22.660    12.080     0.420   C.3       1 DRG       0.064
   150  HBR        22.901    12.336    -0.612   H         1 DRG      -0.021
   151  HBS        22.487    11.017     0.586   H         1 DRG      -0.019
   152  CAW        21.400    12.860     0.790   C.3       1 DRG       0.064
   153  HA9        21.161    12.609     1.823   H         1 DRG      -0.019
   154  HBA        21.567    13.923     0.615   H         1 DRG      -0.019
   155  CAN        20.230    12.380    -0.070   C.3       1 DRG       0.064
   156  HAR        20.474    12.623    -1.104   H         1 DRG      -0.022
   157  HAS        20.057    11.319     0.112   H         1 DRG      -0.019
   158  CAB        18.970    13.170     0.290   C.3       1 DRG       0.062
   159  HAE        19.141    14.231     0.108   H         1 DRG      -0.019
   160  HAF        18.733    13.016     1.343   H         1 DRG      -0.019
   161  HAD        18.189    12.773    -0.359   H         1 DRG      -0.019
@<TRIPOS>BOND
    1    1    2 1 
    2    1    3 1 
    3    1    4 1 
    4    5    1 1 
    5    5    6 1 
    6    5    7 1 
    7    5    8 1 
    8    8    9 1 
    9    8   10 1 
   10    8   11 1 
   11   11   12 1 
   12   11   13 1 
   13   11   14 1 
   14   14   15 1 
   15   14   16 1 
   16   14   17 1 
   17   17   18 1 
   18   17   19 1 
   19   17   20 1 
   20   20   21 1 
   21   20   22 1 
   22   20   23 1 
   23   23   24 1 
   24   23   25 1 
   25   23   26 1 
   26   26   27 1 
   27   26   28 2 
   28   28   29 1 
   29   30   28 1 
   30   30   31 1 
   31   30   32 1 
   32   30   33 1 
   33   33   34 1 
   34   33   35 1 
   35   33   36 1 
   36   36   37 1 
   37   36   38 1 
   38   36   39 1 
   39   39   40 1 
   40   39   41 1 
   41   39   42 1 
   42   42   43 1 
   43   42   44 1 
   44   42   45 1 
   45   45   46 1 
   46   45   47 1 
   47   45   48 1 
   48   48   49 1 
   49   48   50 1 
   50   51   48 1 
   51   51   52 2 
   52   51   53 1 
   53   54   53 1 
   54   54   55 1 
   55   54   56 1 
   56   54  109 1 
   57   57   56 1 
   58   57   58 2 
   59   57   59 1 
   60   59   60 1 
   61   59   61 1 
   62   59   62 1 
   63   62   63 1 
   64   62   64 1 
   65   62   65 1 
   66   65   66 1 
   67   65   67 1 
   68   65   68 1 
   69   68   69 1 
   70   68   70 1 
   71   68   71 1 
   72   71   72 1 
   73   71   73 1 
   74   71   74 1 
   75   74   75 1 
   76   74   76 1 
   77   74   77 1 
   78   77   78 1 
   79   77   79 1 
   80   77   80 1 
   81   80   81 1 
   82   80   82 2 
   83   82   83 1 
   84   84   82 1 
   85   84   85 1 
   86   84   86 1 
   87   84   87 1 
   88   87   88 1 
   89   87   89 1 
   90   87   90 1 
   91   90   91 1 
   92   90   92 1 
   93   90   93 1 
   94   93   94 1 
   95   93   95 1 
   96   93   96 1 
   97   96   97 1 
   98   96   98 1 
   99   96   99 1 
  100   99  100 1 
  101   99  101 1 
  102   99  102 1 
  103  102  103 1 
  104  102  104 1 
  105  102  105 1 
  106  105  106 1 
  107  105  107 1 
  108  105  108 1 
  109  110  109 1 
  110  110  111 2 
  111  110  112 1 
  112  112  113 1 
  113  112  114 1 
  114  112  115 1 
  115  115  116 1 
  116  115  117 1 
  117  115  118 1 
  118  118  119 1 
  119  118  120 1 
  120  118  121 1 
  121  121  122 1 
  122  121  123 1 
  123  121  124 1 
  124  124  125 1 
  125  124  126 1 
  126  124  127 1 
  127  127  128 1 
  128  127  129 1 
  129  127  130 1 
  130  130  131 1 
  131  130  132 1 
  132  130  133 1 
  133  133  134 1 
  134  133  135 2 
  135  135  136 1 
  136  137  135 1 
  137  137  138 1 
  138  137  139 1 
  139  137  140 1 
  140  140  141 1 
  141  140  142 1 
  142  140  143 1 
  143  143  144 1 
  144  143  145 1 
  145  143  146 1 
  146  146  147 1 
  147  146  148 1 
  148  146  149 1 
  149  149  150 1 
  150  149  151 1 
  151  149  152 1 
  152  152  153 1 
  153  152  154 1 
  154  152  155 1 
  155  155  156 1 
  156  155  157 1 
  157  155  158 1 
  158  158  159 1 
  159  158  160 1 
  160  158  161 1 
@<TRIPOS>SUBSTRUCTURE
  1  DRG    1  
