#       
#       
#       This file was generated by PRODRG version AA100323.0717
#       PRODRG written/copyrighted by Daan van Aalten
#       and Alexander Schuettelkopf
#       
#       Questions/comments to dava@davapc1.bioch.dundee.ac.uk
#       
#       When using this software in a publication, cite:
#       A. W. Schuettelkopf and D. M. F. van Aalten (2004).
#       PRODRG - a tool for high-throughput crystallography
#       of protein-ligand complexes.
#       Acta Crystallogr. D60, 1355--1363.
#       
#       
@<TRIPOS>MOLECULE
DRG  
   61   60    1
SMALL
USER_CHARGES

PRODRG MOLECULE
@<TRIPOS>ATOM
     1  CAA        33.390    -1.330     6.590   C.3       1 DRG       0.062
     2  CAM        32.670    -0.630     7.740   C.3       1 DRG       0.064
     3  CAV        33.530     0.520     8.260   C.3       1 DRG       0.064
     4  CBE        32.820     1.200     9.430   C.3       1 DRG       0.063
     5  CBN        33.720     2.300    10.000   C.3       1 DRG       0.064
     6  CBH        33.040     2.920    11.230   C.3       1 DRG       0.064
     7  CAY        34.000     3.930    11.870   C.3       1 DRG       0.064
     8  CAP        33.410     4.540    13.150   C.3       1 DRG       0.064
     9  CAG        32.250     5.500    12.840   C.2       1 DRG       0.001
    10  CAJ        32.270     6.800    13.650   C.2       1 DRG       0.001
    11  CAS        31.330     7.910    13.170   C.3       1 DRG       0.064
    12  CBB        32.060     9.010    12.380   C.3       1 DRG       0.064
    13  CBK        32.150     8.730    10.870   C.3       1 DRG       0.063
    14  CBQ        33.200     7.660    10.530   C.3       1 DRG       0.064
    15  CBT        33.080     7.110     9.100   C.3       1 DRG       0.063
    16  CBW        31.700     6.460     8.850   C.3       1 DRG       0.063
    17  CBZ        31.600     5.730     7.510   C.3       1 DRG       0.063
    18  CCF        32.080     6.540     6.290   C.2       1 DRG       0.202
    19  OAD        33.200     6.330     5.820   O.2       1 DRG      -0.437
    20  OCC        31.210     7.460     5.770   O.3       1 DRG      -0.125
    21  CCI        31.420     8.800     6.260   C.3       1 DRG       0.132
    22  OCE        32.710     9.310     5.880   O.3       1 DRG      -0.125
    23  CCH        33.040     9.350     4.550   C.2       1 DRG       0.202
    24  OAF        32.360     9.930     3.700   O.2       1 DRG      -0.438
    25  CCB        34.380     8.720     4.150   C.3       1 DRG       0.064
    26  CBY        35.460     8.860     5.240   C.3       1 DRG       0.064
    27  CBV        36.770     8.210     4.790   C.3       1 DRG       0.064
    28  CBS        37.500     9.100     3.780   C.3       1 DRG       0.064
    29  CBM        38.700     8.350     3.190   C.3       1 DRG       0.063
    30  CBD        39.490     9.180     2.170   C.3       1 DRG       0.064
    31  CAU        38.800     9.350     0.810   C.3       1 DRG       0.064
    32  CAL        37.730    10.450     0.850   C.2       1 DRG       0.001
    33  CAI        37.600    11.290    -0.420   C.2       1 DRG       0.001
    34  CAR        36.790    12.580    -0.250   C.3       1 DRG       0.064
    35  CBA        37.740    13.690     0.200   C.3       1 DRG       0.063
    36  CBJ        36.950    14.980     0.450   C.3       1 DRG       0.064
    37  CBP        37.920    16.070     0.930   C.3       1 DRG       0.064
    38  CBG        37.200    17.400     1.190   C.3       1 DRG       0.064
    39  CAX        37.370    18.410     0.050   C.3       1 DRG       0.064
    40  CAO        36.440    18.120    -1.140   C.3       1 DRG       0.064
    41  CAC        36.680    19.160    -2.240   C.3       1 DRG       0.062
    42  OCD        30.350     9.660     5.830   O.3       1 DRG      -0.125
    43  CCG        30.340    10.880     6.440   C.2       1 DRG       0.201
    44  OAE        30.040    11.050     7.620   O.2       1 DRG      -0.437
    45  CCA        30.750    12.050     5.540   C.3       1 DRG       0.064
    46  CBX        32.130    12.600     5.940   C.3       1 DRG       0.064
    47  CBU        32.900    13.250     4.780   C.3       1 DRG       0.064
    48  CBR        32.420    14.650     4.350   C.3       1 DRG       0.064
    49  CBL        31.280    14.690     3.320   C.3       1 DRG       0.064
    50  CBC        31.690    14.150     1.940   C.3       1 DRG       0.064
    51  CAT        31.100    12.750     1.680   C.3       1 DRG       0.064
    52  CAK        29.600    12.830     1.390   C.2       1 DRG       0.000
    53  CAH        28.760    11.710     2.010   C.2       1 DRG       0.001
    54  CAQ        27.490    11.330     1.230   C.3       1 DRG       0.064
    55  CAZ        26.290    12.160     1.700   C.3       1 DRG       0.064
    56  CBI        25.080    11.730     0.870   C.3       1 DRG       0.064
    57  CBO        23.840    12.540     1.280   C.3       1 DRG       0.064
    58  CBF        22.660    12.080     0.420   C.3       1 DRG       0.064
    59  CAW        21.400    12.860     0.790   C.3       1 DRG       0.064
    60  CAN        20.230    12.380    -0.070   C.3       1 DRG       0.064
    61  CAB        18.970    13.170     0.290   C.3       1 DRG       0.062
@<TRIPOS>BOND
    1    2    1 1 
    2    2    3 1 
    3    3    4 1 
    4    4    5 1 
    5    5    6 1 
    6    6    7 1 
    7    7    8 1 
    8    8    9 1 
    9    9   10 2 
   10   11   10 1 
   11   11   12 1 
   12   12   13 1 
   13   13   14 1 
   14   14   15 1 
   15   15   16 1 
   16   16   17 1 
   17   18   17 1 
   18   18   19 2 
   19   18   20 1 
   20   21   20 1 
   21   21   22 1 
   22   21   42 1 
   23   23   22 1 
   24   23   24 2 
   25   23   25 1 
   26   25   26 1 
   27   26   27 1 
   28   27   28 1 
   29   28   29 1 
   30   29   30 1 
   31   30   31 1 
   32   31   32 1 
   33   32   33 2 
   34   34   33 1 
   35   34   35 1 
   36   35   36 1 
   37   36   37 1 
   38   37   38 1 
   39   38   39 1 
   40   39   40 1 
   41   40   41 1 
   42   43   42 1 
   43   43   44 2 
   44   43   45 1 
   45   45   46 1 
   46   46   47 1 
   47   47   48 1 
   48   48   49 1 
   49   49   50 1 
   50   50   51 1 
   51   51   52 1 
   52   52   53 2 
   53   54   53 1 
   54   54   55 1 
   55   55   56 1 
   56   56   57 1 
   57   57   58 1 
   58   58   59 1 
   59   59   60 1 
   60   60   61 1 
@<TRIPOS>SUBSTRUCTURE
  1  DRG    1  
