#       
#       
#       This file was generated by PRODRG version AA100323.0717
#       PRODRG written/copyrighted by Daan van Aalten
#       and Alexander Schuettelkopf
#       
#       Questions/comments to dava@davapc1.bioch.dundee.ac.uk
#       
#       When using this software in a publication, cite:
#       A. W. Schuettelkopf and D. M. F. van Aalten (2004).
#       PRODRG - a tool for high-throughput crystallography
#       of protein-ligand complexes.
#       Acta Crystallogr. D60, 1355--1363.
#       
#       
@<TRIPOS>MOLECULE
DRG  
  155  154    1
SMALL
USER_CHARGES

PRODRG MOLECULE
@<TRIPOS>ATOM
     1  CAA        -0.590    36.830    -3.300   C.3       1 DRG       0.100
     2  HAA         0.208    36.409    -3.911   H         1 DRG      -0.035
     3  HAB        -0.207    37.682    -2.739   H         1 DRG      -0.035
     4  HAC        -1.455    37.105    -3.904   H         1 DRG      -0.035
     5  CAG        -1.100    35.770    -2.330   C.3       1 DRG       0.102
     6  HAJ        -1.898    36.193    -1.719   H         1 DRG      -0.036
     7  HAK        -0.240    35.418    -1.760   H         1 DRG      -0.035
     8  CAJ        -1.640    34.570    -3.110   C.3       1 DRG       0.102
     9  HAP        -0.833    34.124    -3.692   H         1 DRG      -0.035
    10  HAQ        -2.477    34.930    -3.709   H         1 DRG      -0.035
    11  CAM        -2.200    33.530    -2.140   C.3       1 DRG       0.101
    12  HAV        -2.996    33.978    -1.544   H         1 DRG      -0.035
    13  HAW        -1.361    33.151    -1.557   H         1 DRG      -0.035
    14  CAP        -2.760    32.350    -2.940   C.3       1 DRG       0.101
    15  HA1        -1.955    31.876    -3.502   H         1 DRG      -0.035
    16  HA2        -3.571    32.737    -3.556   H         1 DRG      -0.035
    17  CAS        -3.380    31.330    -1.970   C.3       1 DRG       0.102
    18  HA7        -4.189    31.802    -1.413   H         1 DRG      -0.035
    19  HA8        -2.570    30.947    -1.349   H         1 DRG      -0.035
    20  CAV        -3.930    30.150    -2.770   C.3       1 DRG       0.102
    21  HBD        -3.127    29.698    -3.352   H         1 DRG      -0.035
    22  HBE        -4.760    30.527    -3.367   H         1 DRG      -0.035
    23  CAY        -4.510    29.110    -1.800   C.3       1 DRG       0.101
    24  HBJ        -5.409    29.509    -1.330   H         1 DRG      -0.035
    25  HBK        -3.716    28.845    -1.102   H         1 DRG      -0.035
    26  CBB        -4.860    27.840    -2.590   C.3       1 DRG       0.102
    27  HBP        -4.018    27.585    -3.234   H         1 DRG      -0.035
    28  HBQ        -5.781    28.054    -3.133   H         1 DRG      -0.035
    29  CBE        -5.160    26.640    -1.670   C.3       1 DRG       0.102
    30  HBV        -5.470    25.799    -2.290   H         1 DRG      -0.035
    31  HBW        -5.926    26.972    -0.969   H         1 DRG      -0.035
    32  CBH        -3.950    26.200    -0.820   C.3       1 DRG       0.102
    33  HB1        -4.264    25.385    -0.168   H         1 DRG      -0.035
    34  HB2        -3.613    27.086    -0.281   H         1 DRG      -0.035
    35  CBK        -2.760    25.720    -1.660   C.3       1 DRG       0.102
    36  HB7        -2.741    26.278    -2.596   H         1 DRG      -0.035
    37  HB8        -2.881    24.644    -1.789   H         1 DRG      -0.035
    38  CBN        -1.430    25.930    -0.930   C.3       1 DRG       0.102
    39  HCD        -0.628    25.468    -1.505   H         1 DRG      -0.036
    40  HCE        -1.551    25.522     0.074   H         1 DRG      -0.035
    41  CBQ        -1.140    27.430    -0.770   C.3       1 DRG       0.101
    42  HCJ        -0.998    27.651     0.288   H         1 DRG      -0.035
    43  HCK        -1.977    27.961    -1.224   H         1 DRG      -0.036
    44  CBT         0.120    27.850    -1.540   C.3       1 DRG       0.102
    45  HCP         0.067    28.916    -1.761   H         1 DRG      -0.035
    46  HCQ         0.177    27.215    -2.424   H         1 DRG      -0.035
    47  CCB         1.370    27.570    -0.710   C.2       1 DRG       0.330
    48  OAD         2.000    26.520    -0.880   O.2       1 DRG      -0.736
    49  OBY         1.840    28.570     0.090   O.3       1 DRG      -0.213
    50  CBW         2.480    29.600    -0.680   C.3       1 DRG       0.255
    51  HCV         2.191    30.560    -0.253   H         1 DRG      -0.035
    52  HCW         2.142    29.482    -1.709   H         1 DRG      -0.035
    53  CCE         4.020    29.560    -0.740   C.3       1 DRG       0.216
    54  HCZ         4.239    29.987    -1.719   H         1 DRG      -0.035
    55  OCA         4.650    30.460     0.180   O.3       1 DRG      -0.213
    56  CCD         4.930    30.060     1.460   C.2       1 DRG       0.330
    57  OAF         4.040    29.840     2.270   O.2       1 DRG      -0.736
    58  CBV         6.410    29.810     1.820   C.3       1 DRG       0.102
    59  HCT         6.556    30.200     2.827   H         1 DRG      -0.035
    60  HCU         6.620    28.745     1.724   H         1 DRG      -0.035
    61  CBS         7.370    30.590     0.900   C.3       1 DRG       0.101
    62  HCN         7.126    30.303    -0.123   H         1 DRG      -0.036
    63  HCO         7.264    31.656     1.099   H         1 DRG      -0.035
    64  CBP         8.830    30.180     1.140   C.3       1 DRG       0.102
    65  HCH         9.155    30.683     2.051   H         1 DRG      -0.035
    66  HCI         8.897    29.093     1.182   H         1 DRG      -0.035
    67  CBM         9.720    30.700     0.000   C.3       1 DRG       0.102
    68  HCB        10.717    30.295     0.175   H         1 DRG      -0.037
    69  HCC         9.284    30.391    -0.950   H         1 DRG      -0.035
    70  CBJ         9.860    32.220     0.000   C.3       1 DRG       0.102
    71  HB5         8.851    32.633    -0.018   H         1 DRG      -0.035
    72  HB6        10.454    32.529     0.860   H         1 DRG      -0.035
    73  CBG        10.550    32.670    -1.280   C.3       1 DRG       0.101
    74  HBZ        11.596    32.375    -1.201   H         1 DRG      -0.035
    75  HB0        10.030    32.250    -2.141   H         1 DRG      -0.035
    76  CBD        10.520    34.200    -1.360   C.3       1 DRG       0.102
    77  HBT         9.482    34.506    -1.232   H         1 DRG      -0.035
    78  HBU        11.204    34.615    -0.620   H         1 DRG      -0.035
    79  CBA        10.950    34.650    -2.760   C.3       1 DRG       0.102
    80  HBN        12.023    34.475    -2.838   H         1 DRG      -0.035
    81  HBO        10.352    34.135    -3.512   H         1 DRG      -0.035
    82  CAX        10.730    36.160    -2.870   C.3       1 DRG       0.101
    83  HBH         9.670    36.342    -2.693   H         1 DRG      -0.035
    84  HBI        11.395    36.675    -2.176   H         1 DRG      -0.036
    85  CAU        11.030    36.620    -4.300   C.3       1 DRG       0.102
    86  HBB        12.100    36.488    -4.460   H         1 DRG      -0.035
    87  HBC        10.400    36.070    -4.999   H         1 DRG      -0.035
    88  CAR        10.740    38.120    -4.420   C.3       1 DRG       0.101
    89  HA5         9.674    38.254    -4.237   H         1 DRG      -0.035
    90  HA6        11.385    38.672    -3.736   H         1 DRG      -0.035
    91  CAO        11.010    38.570    -5.850   C.3       1 DRG       0.102
    92  HAZ        12.077    38.443    -6.031   H         1 DRG      -0.036
    93  HA0        10.369    38.014    -6.534   H         1 DRG      -0.035
    94  CAL        10.710    40.070    -5.970   C.3       1 DRG       0.102
    95  HAT         9.643    40.197    -5.789   H         1 DRG      -0.035
    96  HAU        11.350    40.624    -5.283   H         1 DRG      -0.035
    97  CAI        10.980    40.530    -7.400   C.3       1 DRG       0.101
    98  HAN        12.047    40.403    -7.581   H         1 DRG      -0.035
    99  HAO        10.340    39.976    -8.087   H         1 DRG      -0.036
   100  CAC        10.680    42.030    -7.520   C.3       1 DRG       0.100
   101  HAH        11.319    42.585    -6.833   H         1 DRG      -0.035
   102  HAI         9.635    42.212    -7.270   H         1 DRG      -0.035
   103  HAG        10.894    42.281    -8.559   H         1 DRG      -0.036
   104  CBX         4.640    28.150    -0.830   C.3       1 DRG       0.255
   105  HCX         5.561    28.176    -0.248   H         1 DRG      -0.035
   106  HCY         3.918    27.412    -0.481   H         1 DRG      -0.036
   107  OBZ         4.990    27.870    -2.200   O.3       1 DRG      -0.213
   108  CCC         6.300    28.130    -2.490   C.2       1 DRG       0.331
   109  OAE         7.120    28.610    -1.700   O.2       1 DRG      -0.737
   110  CBU         6.680    27.800    -3.940   C.3       1 DRG       0.102
   111  HCR         7.065    26.780    -3.932   H         1 DRG      -0.035
   112  HCS         5.791    27.921    -4.560   H         1 DRG      -0.035
   113  CBR         7.800    28.680    -4.530   C.3       1 DRG       0.102
   114  HCL         8.559    28.773    -3.753   H         1 DRG      -0.035
   115  HCM         8.166    28.203    -5.439   H         1 DRG      -0.035
   116  CBO         7.360    30.110    -4.880   C.3       1 DRG       0.102
   117  HCF         8.108    30.509    -5.566   H         1 DRG      -0.035
   118  HCG         6.353    30.078    -5.295   H         1 DRG      -0.035
   119  CBL         7.360    31.020    -3.650   C.3       1 DRG       0.102
   120  HB9         6.592    30.638    -2.977   H         1 DRG      -0.035
   121  HCA         8.361    31.031    -3.218   H         1 DRG      -0.035
   122  CBI         6.960    32.450    -4.010   C.3       1 DRG       0.102
   123  HB3         7.766    32.872    -4.610   H         1 DRG      -0.035
   124  HB4         5.981    32.457    -4.490   H         1 DRG      -0.035
   125  CBF         6.910    33.230    -2.700   C.3       1 DRG       0.102
   126  HBX         6.047    32.861    -2.145   H         1 DRG      -0.035
   127  HBY         7.858    33.106    -2.176   H         1 DRG      -0.035
   128  CBC         6.670    34.720    -2.950   C.3       1 DRG       0.102
   129  HBR         7.507    35.088    -3.543   H         1 DRG      -0.036
   130  HBS         5.690    34.868    -3.404   H         1 DRG      -0.035
   131  CAZ         6.730    35.430    -1.590   C.3       1 DRG       0.102
   132  HBL         5.868    35.088    -1.018   H         1 DRG      -0.035
   133  HBM         7.689    35.217    -1.118   H         1 DRG      -0.035
   134  CAW         6.580    36.940    -1.760   C.3       1 DRG       0.102
   135  HBF         7.431    37.285    -2.347   H         1 DRG      -0.035
   136  HBG         5.608    37.167    -2.198   H         1 DRG      -0.035
   137  CAT         6.690    37.590    -0.380   C.3       1 DRG       0.102
   138  HA9         5.863    37.204     0.216   H         1 DRG      -0.035
   139  HBA         7.673    37.370     0.036   H         1 DRG      -0.035
   140  CAQ         6.510    39.110    -0.450   C.3       1 DRG       0.102
   141  HA3         5.670    39.296    -1.120   H         1 DRG      -0.035
   142  HA4         6.362    39.494     0.559   H         1 DRG      -0.035
   143  CAN         7.730    39.800    -1.070   C.3       1 DRG       0.102
   144  HAX         8.571    39.627    -0.399   H         1 DRG      -0.035
   145  HAY         7.881    39.434    -2.085   H         1 DRG      -0.036
   146  CAK         7.480    41.310    -1.100   C.3       1 DRG       0.102
   147  HAR         6.632    41.479    -1.763   H         1 DRG      -0.035
   148  HAS         7.331    41.672    -0.083   H         1 DRG      -0.035
   149  CAH         8.680    42.020    -1.720   C.3       1 DRG       0.102
   150  HAL         9.530    41.846    -1.060   H         1 DRG      -0.036
   151  HAM         8.826    41.663    -2.739   H         1 DRG      -0.035
   152  CAB         8.430    43.520    -1.740   C.3       1 DRG       0.100
   153  HAE         8.284    43.878    -0.721   H         1 DRG      -0.035
   154  HAF         7.539    43.732    -2.330   H         1 DRG      -0.035
   155  HAD         9.322    43.953    -2.193   H         1 DRG      -0.035
@<TRIPOS>BOND
    1    1    2 1 
    2    1    3 1 
    3    1    4 1 
    4    5    1 1 
    5    5    6 1 
    6    5    7 1 
    7    5    8 1 
    8    8    9 1 
    9    8   10 1 
   10    8   11 1 
   11   11   12 1 
   12   11   13 1 
   13   11   14 1 
   14   14   15 1 
   15   14   16 1 
   16   14   17 1 
   17   17   18 1 
   18   17   19 1 
   19   17   20 1 
   20   20   21 1 
   21   20   22 1 
   22   20   23 1 
   23   23   24 1 
   24   23   25 1 
   25   23   26 1 
   26   26   27 1 
   27   26   28 1 
   28   26   29 1 
   29   29   30 1 
   30   29   31 1 
   31   29   32 1 
   32   32   33 1 
   33   32   34 1 
   34   32   35 1 
   35   35   36 1 
   36   35   37 1 
   37   35   38 1 
   38   38   39 1 
   39   38   40 1 
   40   38   41 1 
   41   41   42 1 
   42   41   43 1 
   43   41   44 1 
   44   44   45 1 
   45   44   46 1 
   46   47   44 1 
   47   47   48 2 
   48   47   49 1 
   49   50   49 1 
   50   50   51 1 
   51   50   52 1 
   52   53   50 1 
   53   53   54 1 
   54   53   55 1 
   55   53  104 1 
   56   56   55 1 
   57   56   57 2 
   58   56   58 1 
   59   58   59 1 
   60   58   60 1 
   61   58   61 1 
   62   61   62 1 
   63   61   63 1 
   64   61   64 1 
   65   64   65 1 
   66   64   66 1 
   67   64   67 1 
   68   67   68 1 
   69   67   69 1 
   70   67   70 1 
   71   70   71 1 
   72   70   72 1 
   73   70   73 1 
   74   73   74 1 
   75   73   75 1 
   76   73   76 1 
   77   76   77 1 
   78   76   78 1 
   79   76   79 1 
   80   79   80 1 
   81   79   81 1 
   82   79   82 1 
   83   82   83 1 
   84   82   84 1 
   85   82   85 1 
   86   85   86 1 
   87   85   87 1 
   88   85   88 1 
   89   88   89 1 
   90   88   90 1 
   91   88   91 1 
   92   91   92 1 
   93   91   93 1 
   94   91   94 1 
   95   94   95 1 
   96   94   96 1 
   97   94   97 1 
   98   97   98 1 
   99   97   99 1 
  100   97  100 1 
  101  100  101 1 
  102  100  102 1 
  103  100  103 1 
  104  104  105 1 
  105  104  106 1 
  106  104  107 1 
  107  108  107 1 
  108  108  109 2 
  109  108  110 1 
  110  110  111 1 
  111  110  112 1 
  112  110  113 1 
  113  113  114 1 
  114  113  115 1 
  115  113  116 1 
  116  116  117 1 
  117  116  118 1 
  118  116  119 1 
  119  119  120 1 
  120  119  121 1 
  121  119  122 1 
  122  122  123 1 
  123  122  124 1 
  124  122  125 1 
  125  125  126 1 
  126  125  127 1 
  127  125  128 1 
  128  128  129 1 
  129  128  130 1 
  130  128  131 1 
  131  131  132 1 
  132  131  133 1 
  133  131  134 1 
  134  134  135 1 
  135  134  136 1 
  136  134  137 1 
  137  137  138 1 
  138  137  139 1 
  139  137  140 1 
  140  140  141 1 
  141  140  142 1 
  142  140  143 1 
  143  143  144 1 
  144  143  145 1 
  145  143  146 1 
  146  146  147 1 
  147  146  148 1 
  148  146  149 1 
  149  149  150 1 
  150  149  151 1 
  151  149  152 1 
  152  152  153 1 
  153  152  154 1 
  154  152  155 1 
@<TRIPOS>SUBSTRUCTURE
  1  DRG    1  
