#       
#       
#       This file was generated by PRODRG version AA100323.0717
#       PRODRG written/copyrighted by Daan van Aalten
#       and Alexander Schuettelkopf
#       
#       Questions/comments to dava@davapc1.bioch.dundee.ac.uk
#       
#       When using this software in a publication, cite:
#       A. W. Schuettelkopf and D. M. F. van Aalten (2004).
#       PRODRG - a tool for high-throughput crystallography
#       of protein-ligand complexes.
#       Acta Crystallogr. D60, 1355--1363.
#       
#       
@<TRIPOS>MOLECULE
DRG  
   57   56    1
SMALL
USER_CHARGES

PRODRG MOLECULE
@<TRIPOS>ATOM
     1  CAA        -0.590    36.830    -3.300   C.3       1 DRG       0.100
     2  CAG        -1.100    35.770    -2.330   C.3       1 DRG       0.102
     3  CAJ        -1.640    34.570    -3.110   C.3       1 DRG       0.102
     4  CAM        -2.200    33.530    -2.140   C.3       1 DRG       0.101
     5  CAP        -2.760    32.350    -2.940   C.3       1 DRG       0.101
     6  CAS        -3.380    31.330    -1.970   C.3       1 DRG       0.102
     7  CAV        -3.930    30.150    -2.770   C.3       1 DRG       0.102
     8  CAY        -4.510    29.110    -1.800   C.3       1 DRG       0.101
     9  CBB        -4.860    27.840    -2.590   C.3       1 DRG       0.102
    10  CBE        -5.160    26.640    -1.670   C.3       1 DRG       0.102
    11  CBH        -3.950    26.200    -0.820   C.3       1 DRG       0.102
    12  CBK        -2.760    25.720    -1.660   C.3       1 DRG       0.102
    13  CBN        -1.430    25.930    -0.930   C.3       1 DRG       0.102
    14  CBQ        -1.140    27.430    -0.770   C.3       1 DRG       0.101
    15  CBT         0.120    27.850    -1.540   C.3       1 DRG       0.102
    16  CCB         1.370    27.570    -0.710   C.2       1 DRG       0.330
    17  OAD         2.000    26.520    -0.880   O.2       1 DRG      -0.736
    18  OBY         1.840    28.570     0.090   O.3       1 DRG      -0.213
    19  CBW         2.480    29.600    -0.680   C.3       1 DRG       0.255
    20  CCE         4.020    29.560    -0.740   C.3       1 DRG       0.216
    21  OCA         4.650    30.460     0.180   O.3       1 DRG      -0.213
    22  CCD         4.930    30.060     1.460   C.2       1 DRG       0.330
    23  OAF         4.040    29.840     2.270   O.2       1 DRG      -0.736
    24  CBV         6.410    29.810     1.820   C.3       1 DRG       0.102
    25  CBS         7.370    30.590     0.900   C.3       1 DRG       0.101
    26  CBP         8.830    30.180     1.140   C.3       1 DRG       0.102
    27  CBM         9.720    30.700     0.000   C.3       1 DRG       0.102
    28  CBJ         9.860    32.220     0.000   C.3       1 DRG       0.102
    29  CBG        10.550    32.670    -1.280   C.3       1 DRG       0.101
    30  CBD        10.520    34.200    -1.360   C.3       1 DRG       0.102
    31  CBA        10.950    34.650    -2.760   C.3       1 DRG       0.102
    32  CAX        10.730    36.160    -2.870   C.3       1 DRG       0.101
    33  CAU        11.030    36.620    -4.300   C.3       1 DRG       0.102
    34  CAR        10.740    38.120    -4.420   C.3       1 DRG       0.101
    35  CAO        11.010    38.570    -5.850   C.3       1 DRG       0.102
    36  CAL        10.710    40.070    -5.970   C.3       1 DRG       0.102
    37  CAI        10.980    40.530    -7.400   C.3       1 DRG       0.101
    38  CAC        10.680    42.030    -7.520   C.3       1 DRG       0.100
    39  CBX         4.640    28.150    -0.830   C.3       1 DRG       0.255
    40  OBZ         4.990    27.870    -2.200   O.3       1 DRG      -0.213
    41  CCC         6.300    28.130    -2.490   C.2       1 DRG       0.331
    42  OAE         7.120    28.610    -1.700   O.2       1 DRG      -0.737
    43  CBU         6.680    27.800    -3.940   C.3       1 DRG       0.102
    44  CBR         7.800    28.680    -4.530   C.3       1 DRG       0.102
    45  CBO         7.360    30.110    -4.880   C.3       1 DRG       0.102
    46  CBL         7.360    31.020    -3.650   C.3       1 DRG       0.102
    47  CBI         6.960    32.450    -4.010   C.3       1 DRG       0.102
    48  CBF         6.910    33.230    -2.700   C.3       1 DRG       0.102
    49  CBC         6.670    34.720    -2.950   C.3       1 DRG       0.102
    50  CAZ         6.730    35.430    -1.590   C.3       1 DRG       0.102
    51  CAW         6.580    36.940    -1.760   C.3       1 DRG       0.102
    52  CAT         6.690    37.590    -0.380   C.3       1 DRG       0.102
    53  CAQ         6.510    39.110    -0.450   C.3       1 DRG       0.102
    54  CAN         7.730    39.800    -1.070   C.3       1 DRG       0.102
    55  CAK         7.480    41.310    -1.100   C.3       1 DRG       0.102
    56  CAH         8.680    42.020    -1.720   C.3       1 DRG       0.102
    57  CAB         8.430    43.520    -1.740   C.3       1 DRG       0.100
@<TRIPOS>BOND
    1    2    1 1 
    2    2    3 1 
    3    3    4 1 
    4    4    5 1 
    5    5    6 1 
    6    6    7 1 
    7    7    8 1 
    8    8    9 1 
    9    9   10 1 
   10   10   11 1 
   11   11   12 1 
   12   12   13 1 
   13   13   14 1 
   14   14   15 1 
   15   16   15 1 
   16   16   17 2 
   17   16   18 1 
   18   19   18 1 
   19   20   19 1 
   20   20   21 1 
   21   20   39 1 
   22   22   21 1 
   23   22   23 2 
   24   22   24 1 
   25   24   25 1 
   26   25   26 1 
   27   26   27 1 
   28   27   28 1 
   29   28   29 1 
   30   29   30 1 
   31   30   31 1 
   32   31   32 1 
   33   32   33 1 
   34   33   34 1 
   35   34   35 1 
   36   35   36 1 
   37   36   37 1 
   38   37   38 1 
   39   39   40 1 
   40   41   40 1 
   41   41   42 2 
   42   41   43 1 
   43   43   44 1 
   44   44   45 1 
   45   45   46 1 
   46   46   47 1 
   47   47   48 1 
   48   48   49 1 
   49   49   50 1 
   50   50   51 1 
   51   51   52 1 
   52   52   53 1 
   53   53   54 1 
   54   54   55 1 
   55   55   56 1 
   56   56   57 1 
@<TRIPOS>SUBSTRUCTURE
  1  DRG    1  
